<?xml version="1.0" encoding="UTF-8"?>

<!-- generated on 03/01/21 20:18:06 by Eclipse SUMO duarouter Version 1.7.0
<configuration xmlns:xsi="http://www.w3.org/2001/XMLSchema-instance" xsi:noNamespaceSchemaLocation="http://sumo.dlr.de/xsd/duarouterConfiguration.xsd">

    <input>
        <net-file value="map.net.xml"/>
        <additional-files value="map.add.xml"/>
        <route-files value="map.trips.xml"/>
    </input>

    <output>
        <output-file value="map.rou.xml"/>
        <alternatives-output value="map.rou.alt.xml"/>
    </output>

    <time>
        <begin value="0"/>
        <end value="3600"/>
    </time>

    <report>
        <verbose value="true"/>
        <ignore-errors value="true"/>
        <no-step-log value="true"/>
    </report>

</configuration>
-->

<routes xmlns:xsi="http://www.w3.org/2001/XMLSchema-instance" xsi:noNamespaceSchemaLocation="http://sumo.dlr.de/xsd/routes_file.xsd">
    
    <vehicle id="1" type="ev" depart="1.00">
        <route edges="gneE17 gneE18 gneE15 gneE16"/>
    </vehicle>
    <vehicle id="2" type="ev" depart="2.00">
        <route edges="gneE20"/>
    </vehicle>
    <vehicle id="4" type="ev" depart="4.00">
        <route edges="gneE18 gneE15"/>
    </vehicle>
    <vehicle id="6" type="ev" depart="6.00">
        <route edges="gneE15 gneE16"/>
    </vehicle>
    <vehicle id="7" type="ev" depart="7.00">
        <route edges="gneE20 gneE21 gneE22 gneE19"/>
    </vehicle>
    <vehicle id="10" type="ev" depart="10.00">
        <route edges="gneE21 gneE22 gneE19 gneE20"/>
    </vehicle>
    <vehicle id="11" type="ev" depart="11.00">
        <route edges="gneE17 gneE18 gneE15 gneE16"/>
    </vehicle>
    <vehicle id="13" type="ev" depart="13.00">
        <route edges="gneE15"/>
    </vehicle>
    <vehicle id="14" type="ev" depart="14.00">
        <route edges="gneE21 gneE22 gneE19"/>
    </vehicle>
    <vehicle id="15" type="ev" depart="15.00">
        <route edges="gneE21 gneE22 gneE19 gneE20"/>
    </vehicle>
    <vehicle id="16" type="ev" depart="16.00">
        <route edges="gneE19 gneE20 gneE21 gneE22"/>
    </vehicle>
    <vehicle id="18" type="ev" depart="18.00">
        <route edges="gneE21 gneE22 gneE19"/>
    </vehicle>
    <vehicle id="19" type="ev" depart="19.00">
        <route edges="gneE21 gneE22 gneE19"/>
    </vehicle>
    <vehicle id="21" type="ev" depart="21.00">
        <route edges="gneE16 gneE17"/>
    </vehicle>
    <vehicle id="22" type="ev" depart="22.00">
        <route edges="gneE15 gneE16"/>
    </vehicle>
    <vehicle id="23" type="ev" depart="23.00">
        <route edges="gneE15 gneE16 gneE17"/>
    </vehicle>
    <vehicle id="25" type="ev" depart="25.00">
        <route edges="gneE17 gneE18 gneE15 gneE16"/>
    </vehicle>
    <vehicle id="27" type="ev" depart="27.00">
        <route edges="gneE20 gneE21 gneE22 gneE19"/>
    </vehicle>
    <vehicle id="29" type="ev" depart="29.00">
        <route edges="gneE16 gneE17 gneE18"/>
    </vehicle>
    <vehicle id="30" type="ev" depart="30.00">
        <route edges="gneE22 gneE19 gneE20"/>
    </vehicle>
    <vehicle id="31" type="ev" depart="31.00">
        <route edges="gneE19 gneE20"/>
    </vehicle>
    <vehicle id="32" type="ev" depart="32.00">
        <route edges="gneE21"/>
    </vehicle>
    <vehicle id="33" type="ev" depart="33.00">
        <route edges="gneE16 gneE17 gneE18 gneE15"/>
    </vehicle>
    <vehicle id="34" type="ev" depart="34.00">
        <route edges="gneE17"/>
    </vehicle>
    <vehicle id="39" type="ev" depart="39.00">
        <route edges="gneE17 gneE18 gneE15 gneE16"/>
    </vehicle>
    <vehicle id="41" type="ev" depart="41.00">
        <route edges="gneE19 gneE20 gneE21 gneE22"/>
    </vehicle>
    <vehicle id="42" type="ev" depart="42.00">
        <route edges="gneE18 gneE15 gneE16"/>
    </vehicle>
    <vehicle id="43" type="ev" depart="43.00">
        <route edges="gneE22 gneE19"/>
    </vehicle>
    <vehicle id="44" type="ev" depart="44.00">
        <route edges="gneE15"/>
    </vehicle>
    <vehicle id="47" type="ev" depart="47.00">
        <route edges="gneE15 gneE16 gneE17 gneE18"/>
    </vehicle>
    <vehicle id="48" type="ev" depart="48.00">
        <route edges="gneE22 gneE19"/>
    </vehicle>
    <vehicle id="49" type="ev" depart="49.00">
        <route edges="gneE22 gneE19 gneE20 gneE21"/>
    </vehicle>
    <vehicle id="51" type="ev" depart="51.00">
        <route edges="gneE20 gneE21 gneE22 gneE19"/>
    </vehicle>
    <vehicle id="53" type="ev" depart="53.00">
        <route edges="gneE15 gneE16 gneE17 gneE18"/>
    </vehicle>
    <vehicle id="57" type="ev" depart="57.00">
        <route edges="gneE22 gneE19 gneE20 gneE21"/>
    </vehicle>
    <vehicle id="60" type="ev" depart="60.00">
        <route edges="gneE21 gneE22 gneE19"/>
    </vehicle>
    <vehicle id="61" type="ev" depart="61.00">
        <route edges="gneE21 gneE22 gneE19"/>
    </vehicle>
    <vehicle id="62" type="ev" depart="62.00">
        <route edges="gneE15 gneE16 gneE17"/>
    </vehicle>
    <vehicle id="64" type="ev" depart="64.00">
        <route edges="gneE22 gneE19 gneE20 gneE21"/>
    </vehicle>
    <vehicle id="65" type="ev" depart="65.00">
        <route edges="gneE17 gneE18 gneE15"/>
    </vehicle>
    <vehicle id="66" type="ev" depart="66.00">
        <route edges="gneE22"/>
    </vehicle>
    <vehicle id="67" type="ev" depart="67.00">
        <route edges="gneE15 gneE16 gneE17 gneE18"/>
    </vehicle>
    <vehicle id="72" type="ev" depart="72.00">
        <route edges="gneE18 gneE15 gneE16"/>
    </vehicle>
    <vehicle id="73" type="ev" depart="73.00">
        <route edges="gneE19 gneE20"/>
    </vehicle>
    <vehicle id="74" type="ev" depart="74.00">
        <route edges="gneE16 gneE17"/>
    </vehicle>
    <vehicle id="75" type="ev" depart="75.00">
        <route edges="gneE22 gneE19 gneE20"/>
    </vehicle>
    <vehicle id="77" type="ev" depart="77.00">
        <route edges="gneE15 gneE16"/>
    </vehicle>
    <vehicle id="79" type="ev" depart="79.00">
        <route edges="gneE16"/>
    </vehicle>
    <vehicle id="84" type="ev" depart="84.00">
        <route edges="gneE16"/>
    </vehicle>
    <vehicle id="85" type="ev" depart="85.00">
        <route edges="gneE22 gneE19"/>
    </vehicle>
    <vehicle id="88" type="ev" depart="88.00">
        <route edges="gneE15 gneE16 gneE17 gneE18"/>
    </vehicle>
    <vehicle id="89" type="ev" depart="89.00">
        <route edges="gneE18"/>
    </vehicle>
    <vehicle id="90" type="ev" depart="90.00">
        <route edges="gneE20"/>
    </vehicle>
    <vehicle id="92" type="ev" depart="92.00">
        <route edges="gneE18 gneE15 gneE16 gneE17"/>
    </vehicle>
    <vehicle id="94" type="ev" depart="94.00">
        <route edges="gneE16 gneE17 gneE18"/>
    </vehicle>
    <vehicle id="95" type="ev" depart="95.00">
        <route edges="gneE18 gneE15 gneE16 gneE17"/>
    </vehicle>
    <vehicle id="99" type="ev" depart="99.00">
        <route edges="gneE22 gneE19 gneE20 gneE21"/>
    </vehicle>
    <vehicle id="100" type="ev" depart="100.00">
        <route edges="gneE22"/>
    </vehicle>
    <vehicle id="102" type="ev" depart="102.00">
        <route edges="gneE18 gneE15 gneE16"/>
    </vehicle>
    <vehicle id="103" type="ev" depart="103.00">
        <route edges="gneE18 gneE15"/>
    </vehicle>
    <vehicle id="106" type="ev" depart="106.00">
        <route edges="gneE18"/>
    </vehicle>
    <vehicle id="107" type="ev" depart="107.00">
        <route edges="gneE22"/>
    </vehicle>
    <vehicle id="108" type="ev" depart="108.00">
        <route edges="gneE19 gneE20"/>
    </vehicle>
    <vehicle id="109" type="ev" depart="109.00">
        <route edges="gneE16 gneE17"/>
    </vehicle>
    <vehicle id="110" type="ev" depart="110.00">
        <route edges="gneE22 gneE19"/>
    </vehicle>
    <vehicle id="111" type="ev" depart="111.00">
        <route edges="gneE19 gneE20"/>
    </vehicle>
    <vehicle id="113" type="ev" depart="113.00">
        <route edges="gneE19 gneE20 gneE21"/>
    </vehicle>
    <vehicle id="115" type="ev" depart="115.00">
        <route edges="gneE15 gneE16"/>
    </vehicle>
    <vehicle id="116" type="ev" depart="116.00">
        <route edges="gneE19 gneE20"/>
    </vehicle>
    <vehicle id="117" type="ev" depart="117.00">
        <route edges="gneE16 gneE17 gneE18 gneE15"/>
    </vehicle>
    <vehicle id="119" type="ev" depart="119.00">
        <route edges="gneE19"/>
    </vehicle>
    <vehicle id="121" type="ev" depart="121.00">
        <route edges="gneE19 gneE20 gneE21 gneE22"/>
    </vehicle>
    <vehicle id="123" type="ev" depart="123.00">
        <route edges="gneE16 gneE17 gneE18"/>
    </vehicle>
    <vehicle id="126" type="ev" depart="126.00">
        <route edges="gneE15 gneE16 gneE17 gneE18"/>
    </vehicle>
    <vehicle id="127" type="ev" depart="127.00">
        <route edges="gneE22"/>
    </vehicle>
    <vehicle id="128" type="ev" depart="128.00">
        <route edges="gneE15 gneE16"/>
    </vehicle>
    <vehicle id="130" type="ev" depart="130.00">
        <route edges="gneE22"/>
    </vehicle>
    <vehicle id="131" type="ev" depart="131.00">
        <route edges="gneE17 gneE18 gneE15 gneE16"/>
    </vehicle>
    <vehicle id="132" type="ev" depart="132.00">
        <route edges="gneE21 gneE22 gneE19 gneE20"/>
    </vehicle>
    <vehicle id="133" type="ev" depart="133.00">
        <route edges="gneE19 gneE20 gneE21 gneE22"/>
    </vehicle>
    <vehicle id="136" type="ev" depart="136.00">
        <route edges="gneE20 gneE21 gneE22"/>
    </vehicle>
    <vehicle id="137" type="ev" depart="137.00">
        <route edges="gneE16 gneE17 gneE18 gneE15"/>
    </vehicle>
    <vehicle id="144" type="ev" depart="144.00">
        <route edges="gneE18 gneE15 gneE16 gneE17"/>
    </vehicle>
    <vehicle id="147" type="ev" depart="147.00">
        <route edges="gneE20 gneE21 gneE22 gneE19"/>
    </vehicle>
    <vehicle id="148" type="ev" depart="148.00">
        <route edges="gneE18 gneE15"/>
    </vehicle>
    <vehicle id="150" type="ev" depart="150.00">
        <route edges="gneE22 gneE19"/>
    </vehicle>
    <vehicle id="151" type="ev" depart="151.00">
        <route edges="gneE21 gneE22 gneE19"/>
    </vehicle>
    <vehicle id="152" type="ev" depart="152.00">
        <route edges="gneE16"/>
    </vehicle>
    <vehicle id="154" type="ev" depart="154.00">
        <route edges="gneE21"/>
    </vehicle>
    <vehicle id="156" type="ev" depart="156.00">
        <route edges="gneE16 gneE17 gneE18 gneE15"/>
    </vehicle>
    <vehicle id="157" type="ev" depart="157.00">
        <route edges="gneE21 gneE22"/>
    </vehicle>
    <vehicle id="160" type="ev" depart="160.00">
        <route edges="gneE21 gneE22"/>
    </vehicle>
    <vehicle id="161" type="ev" depart="161.00">
        <route edges="gneE21 gneE22"/>
    </vehicle>
    <vehicle id="164" type="ev" depart="164.00">
        <route edges="gneE21"/>
    </vehicle>
    <vehicle id="167" type="ev" depart="167.00">
        <route edges="gneE21"/>
    </vehicle>
    <vehicle id="169" type="ev" depart="169.00">
        <route edges="gneE18 gneE15 gneE16 gneE17"/>
    </vehicle>
    <vehicle id="171" type="ev" depart="171.00">
        <route edges="gneE15 gneE16"/>
    </vehicle>
    <vehicle id="175" type="ev" depart="175.00">
        <route edges="gneE22 gneE19"/>
    </vehicle>
    <vehicle id="179" type="ev" depart="179.00">
        <route edges="gneE15 gneE16 gneE17 gneE18"/>
    </vehicle>
    <vehicle id="181" type="ev" depart="181.00">
        <route edges="gneE19"/>
    </vehicle>
    <vehicle id="185" type="ev" depart="185.00">
        <route edges="gneE19 gneE20"/>
    </vehicle>
    <vehicle id="186" type="ev" depart="186.00">
        <route edges="gneE20"/>
    </vehicle>
    <vehicle id="187" type="ev" depart="187.00">
        <route edges="gneE17 gneE18 gneE15"/>
    </vehicle>
    <vehicle id="191" type="ev" depart="191.00">
        <route edges="gneE17 gneE18"/>
    </vehicle>
    <vehicle id="192" type="ev" depart="192.00">
        <route edges="gneE18 gneE15 gneE16 gneE17"/>
    </vehicle>
    <vehicle id="193" type="ev" depart="193.00">
        <route edges="gneE16 gneE17 gneE18"/>
    </vehicle>
    <vehicle id="194" type="ev" depart="194.00">
        <route edges="gneE22 gneE19 gneE20"/>
    </vehicle>
    <vehicle id="195" type="ev" depart="195.00">
        <route edges="gneE22 gneE19"/>
    </vehicle>
    <vehicle id="197" type="ev" depart="197.00">
        <route edges="gneE15 gneE16 gneE17"/>
    </vehicle>
    <vehicle id="200" type="ev" depart="200.00">
        <route edges="gneE18 gneE15 gneE16"/>
    </vehicle>
    <vehicle id="205" type="ev" depart="205.00">
        <route edges="gneE21"/>
    </vehicle>
    <vehicle id="207" type="ev" depart="207.00">
        <route edges="gneE16 gneE17 gneE18 gneE15"/>
    </vehicle>
    <vehicle id="208" type="ev" depart="208.00">
        <route edges="gneE16 gneE17 gneE18"/>
    </vehicle>
    <vehicle id="212" type="ev" depart="212.00">
        <route edges="gneE18 gneE15 gneE16"/>
    </vehicle>
    <vehicle id="214" type="ev" depart="214.00">
        <route edges="gneE21"/>
    </vehicle>
    <vehicle id="215" type="ev" depart="215.00">
        <route edges="gneE15 gneE16 gneE17 gneE18"/>
    </vehicle>
    <vehicle id="220" type="ev" depart="220.00">
        <route edges="gneE20 gneE21 gneE22"/>
    </vehicle>
    <vehicle id="221" type="ev" depart="221.00">
        <route edges="gneE19 gneE20 gneE21 gneE22"/>
    </vehicle>
    <vehicle id="222" type="ev" depart="222.00">
        <route edges="gneE22 gneE19"/>
    </vehicle>
    <vehicle id="223" type="ev" depart="223.00">
        <route edges="gneE20 gneE21 gneE22 gneE19"/>
    </vehicle>
    <vehicle id="224" type="ev" depart="224.00">
        <route edges="gneE21 gneE22 gneE19"/>
    </vehicle>
    <vehicle id="225" type="ev" depart="225.00">
        <route edges="gneE22 gneE19 gneE20"/>
    </vehicle>
    <vehicle id="226" type="ev" depart="226.00">
        <route edges="gneE18 gneE15 gneE16 gneE17"/>
    </vehicle>
    <vehicle id="228" type="ev" depart="228.00">
        <route edges="gneE21 gneE22 gneE19"/>
    </vehicle>
    <vehicle id="230" type="ev" depart="230.00">
        <route edges="gneE15 gneE16 gneE17"/>
    </vehicle>
    <vehicle id="231" type="ev" depart="231.00">
        <route edges="gneE17"/>
    </vehicle>
    <vehicle id="236" type="ev" depart="236.00">
        <route edges="gneE18 gneE15 gneE16"/>
    </vehicle>
    <vehicle id="238" type="ev" depart="238.00">
        <route edges="gneE19 gneE20"/>
    </vehicle>
    <vehicle id="239" type="ev" depart="239.00">
        <route edges="gneE21"/>
    </vehicle>
    <vehicle id="240" type="ev" depart="240.00">
        <route edges="gneE18 gneE15"/>
    </vehicle>
    <vehicle id="242" type="ev" depart="242.00">
        <route edges="gneE21 gneE22"/>
    </vehicle>
    <vehicle id="244" type="ev" depart="244.00">
        <route edges="gneE19"/>
    </vehicle>
    <vehicle id="245" type="ev" depart="245.00">
        <route edges="gneE16"/>
    </vehicle>
    <vehicle id="246" type="ev" depart="246.00">
        <route edges="gneE18 gneE15"/>
    </vehicle>
    <vehicle id="248" type="ev" depart="248.00">
        <route edges="gneE18 gneE15 gneE16"/>
    </vehicle>
    <vehicle id="249" type="ev" depart="249.00">
        <route edges="gneE18 gneE15 gneE16"/>
    </vehicle>
    <vehicle id="253" type="ev" depart="253.00">
        <route edges="gneE16 gneE17 gneE18"/>
    </vehicle>
    <vehicle id="254" type="ev" depart="254.00">
        <route edges="gneE15 gneE16 gneE17 gneE18"/>
    </vehicle>
    <vehicle id="255" type="ev" depart="255.00">
        <route edges="gneE16 gneE17"/>
    </vehicle>
    <vehicle id="257" type="ev" depart="257.00">
        <route edges="gneE21"/>
    </vehicle>
    <vehicle id="258" type="ev" depart="258.00">
        <route edges="gneE17 gneE18 gneE15"/>
    </vehicle>
    <vehicle id="261" type="ev" depart="261.00">
        <route edges="gneE20 gneE21"/>
    </vehicle>
    <vehicle id="262" type="ev" depart="262.00">
        <route edges="gneE20 gneE21"/>
    </vehicle>
    <vehicle id="264" type="ev" depart="264.00">
        <route edges="gneE15 gneE16"/>
    </vehicle>
    <vehicle id="267" type="ev" depart="267.00">
        <route edges="gneE20 gneE21"/>
    </vehicle>
    <vehicle id="270" type="ev" depart="270.00">
        <route edges="gneE21 gneE22"/>
    </vehicle>
    <vehicle id="271" type="ev" depart="271.00">
        <route edges="gneE15"/>
    </vehicle>
    <vehicle id="275" type="ev" depart="275.00">
        <route edges="gneE20"/>
    </vehicle>
    <vehicle id="277" type="ev" depart="277.00">
        <route edges="gneE21 gneE22 gneE19"/>
    </vehicle>
    <vehicle id="280" type="ev" depart="280.00">
        <route edges="gneE18 gneE15 gneE16 gneE17"/>
    </vehicle>
    <vehicle id="282" type="ev" depart="282.00">
        <route edges="gneE21"/>
    </vehicle>
    <vehicle id="284" type="ev" depart="284.00">
        <route edges="gneE20 gneE21"/>
    </vehicle>
    <vehicle id="286" type="ev" depart="286.00">
        <route edges="gneE20 gneE21 gneE22"/>
    </vehicle>
    <vehicle id="294" type="ev" depart="294.00">
        <route edges="gneE18 gneE15"/>
    </vehicle>
    <vehicle id="302" type="ev" depart="302.00">
        <route edges="gneE20"/>
    </vehicle>
    <vehicle id="304" type="ev" depart="304.00">
        <route edges="gneE15 gneE16"/>
    </vehicle>
    <vehicle id="310" type="ev" depart="310.00">
        <route edges="gneE17 gneE18 gneE15"/>
    </vehicle>
    <vehicle id="311" type="ev" depart="311.00">
        <route edges="gneE16 gneE17 gneE18 gneE15"/>
    </vehicle>
    <vehicle id="312" type="ev" depart="312.00">
        <route edges="gneE19 gneE20 gneE21"/>
    </vehicle>
    <vehicle id="313" type="ev" depart="313.00">
        <route edges="gneE16"/>
    </vehicle>
    <vehicle id="315" type="ev" depart="315.00">
        <route edges="gneE22 gneE19"/>
    </vehicle>
    <vehicle id="316" type="ev" depart="316.00">
        <route edges="gneE17 gneE18 gneE15"/>
    </vehicle>
    <vehicle id="317" type="ev" depart="317.00">
        <route edges="gneE16"/>
    </vehicle>
    <vehicle id="318" type="ev" depart="318.00">
        <route edges="gneE16 gneE17 gneE18 gneE15"/>
    </vehicle>
    <vehicle id="320" type="ev" depart="320.00">
        <route edges="gneE22 gneE19"/>
    </vehicle>
    <vehicle id="323" type="ev" depart="323.00">
        <route edges="gneE21 gneE22 gneE19"/>
    </vehicle>
    <vehicle id="324" type="ev" depart="324.00">
        <route edges="gneE18"/>
    </vehicle>
    <vehicle id="325" type="ev" depart="325.00">
        <route edges="gneE16 gneE17 gneE18 gneE15"/>
    </vehicle>
    <vehicle id="329" type="ev" depart="329.00">
        <route edges="gneE15 gneE16"/>
    </vehicle>
    <vehicle id="332" type="ev" depart="332.00">
        <route edges="gneE21 gneE22 gneE19"/>
    </vehicle>
    <vehicle id="337" type="ev" depart="337.00">
        <route edges="gneE19"/>
    </vehicle>
    <vehicle id="338" type="ev" depart="338.00">
        <route edges="gneE20 gneE21 gneE22"/>
    </vehicle>
    <vehicle id="339" type="ev" depart="339.00">
        <route edges="gneE16"/>
    </vehicle>
    <vehicle id="341" type="ev" depart="341.00">
        <route edges="gneE16 gneE17 gneE18 gneE15"/>
    </vehicle>
    <vehicle id="342" type="ev" depart="342.00">
        <route edges="gneE15 gneE16 gneE17 gneE18"/>
    </vehicle>
    <vehicle id="346" type="ev" depart="346.00">
        <route edges="gneE20 gneE21 gneE22"/>
    </vehicle>
    <vehicle id="347" type="ev" depart="347.00">
        <route edges="gneE21 gneE22 gneE19 gneE20"/>
    </vehicle>
    <vehicle id="348" type="ev" depart="348.00">
        <route edges="gneE20 gneE21 gneE22"/>
    </vehicle>
    <vehicle id="350" type="ev" depart="350.00">
        <route edges="gneE20 gneE21 gneE22"/>
    </vehicle>
    <vehicle id="352" type="ev" depart="352.00">
        <route edges="gneE16 gneE17"/>
    </vehicle>
    <vehicle id="353" type="ev" depart="353.00">
        <route edges="gneE20 gneE21 gneE22 gneE19"/>
    </vehicle>
    <vehicle id="354" type="ev" depart="354.00">
        <route edges="gneE17 gneE18 gneE15"/>
    </vehicle>
    <vehicle id="355" type="ev" depart="355.00">
        <route edges="gneE20"/>
    </vehicle>
    <vehicle id="356" type="ev" depart="356.00">
        <route edges="gneE22 gneE19"/>
    </vehicle>
    <vehicle id="357" type="ev" depart="357.00">
        <route edges="gneE18 gneE15"/>
    </vehicle>
    <vehicle id="358" type="ev" depart="358.00">
        <route edges="gneE15 gneE16 gneE17 gneE18"/>
    </vehicle>
    <vehicle id="359" type="ev" depart="359.00">
        <route edges="gneE17"/>
    </vehicle>
    <vehicle id="361" type="ev" depart="361.00">
        <route edges="gneE21 gneE22 gneE19"/>
    </vehicle>
    <vehicle id="362" type="ev" depart="362.00">
        <route edges="gneE22"/>
    </vehicle>
    <vehicle id="367" type="ev" depart="367.00">
        <route edges="gneE19 gneE20"/>
    </vehicle>
    <vehicle id="368" type="ev" depart="368.00">
        <route edges="gneE18 gneE15"/>
    </vehicle>
    <vehicle id="369" type="ev" depart="369.00">
        <route edges="gneE17"/>
    </vehicle>
    <vehicle id="370" type="ev" depart="370.00">
        <route edges="gneE20 gneE21"/>
    </vehicle>
    <vehicle id="373" type="ev" depart="373.00">
        <route edges="gneE21 gneE22 gneE19"/>
    </vehicle>
    <vehicle id="374" type="ev" depart="374.00">
        <route edges="gneE18 gneE15 gneE16 gneE17"/>
    </vehicle>
    <vehicle id="377" type="ev" depart="377.00">
        <route edges="gneE22 gneE19 gneE20"/>
    </vehicle>
    <vehicle id="379" type="ev" depart="379.00">
        <route edges="gneE16 gneE17"/>
    </vehicle>
    <vehicle id="380" type="ev" depart="380.00">
        <route edges="gneE21 gneE22 gneE19 gneE20"/>
    </vehicle>
    <vehicle id="382" type="ev" depart="382.00">
        <route edges="gneE19 gneE20 gneE21 gneE22"/>
    </vehicle>
    <vehicle id="388" type="ev" depart="388.00">
        <route edges="gneE22"/>
    </vehicle>
    <vehicle id="389" type="ev" depart="389.00">
        <route edges="gneE18 gneE15"/>
    </vehicle>
    <vehicle id="391" type="ev" depart="391.00">
        <route edges="gneE20 gneE21 gneE22 gneE19"/>
    </vehicle>
    <vehicle id="395" type="ev" depart="395.00">
        <route edges="gneE22 gneE19"/>
    </vehicle>
    <vehicle id="396" type="ev" depart="396.00">
        <route edges="gneE22 gneE19 gneE20 gneE21"/>
    </vehicle>
    <vehicle id="399" type="ev" depart="399.00">
        <route edges="gneE19 gneE20 gneE21"/>
    </vehicle>
    <vehicle id="400" type="ev" depart="400.00">
        <route edges="gneE17"/>
    </vehicle>
    <vehicle id="401" type="ev" depart="401.00">
        <route edges="gneE19 gneE20 gneE21 gneE22"/>
    </vehicle>
    <vehicle id="402" type="ev" depart="402.00">
        <route edges="gneE18 gneE15 gneE16"/>
    </vehicle>
    <vehicle id="404" type="ev" depart="404.00">
        <route edges="gneE19"/>
    </vehicle>
    <vehicle id="405" type="ev" depart="405.00">
        <route edges="gneE18 gneE15 gneE16 gneE17"/>
    </vehicle>
    <vehicle id="409" type="ev" depart="409.00">
        <route edges="gneE20"/>
    </vehicle>
    <vehicle id="411" type="ev" depart="411.00">
        <route edges="gneE20 gneE21"/>
    </vehicle>
    <vehicle id="414" type="ev" depart="414.00">
        <route edges="gneE19 gneE20 gneE21"/>
    </vehicle>
    <vehicle id="421" type="ev" depart="421.00">
        <route edges="gneE20 gneE21"/>
    </vehicle>
    <vehicle id="422" type="ev" depart="422.00">
        <route edges="gneE21"/>
    </vehicle>
    <vehicle id="423" type="ev" depart="423.00">
        <route edges="gneE18 gneE15 gneE16 gneE17"/>
    </vehicle>
    <vehicle id="424" type="ev" depart="424.00">
        <route edges="gneE20 gneE21"/>
    </vehicle>
    <vehicle id="427" type="ev" depart="427.00">
        <route edges="gneE22"/>
    </vehicle>
    <vehicle id="431" type="ev" depart="431.00">
        <route edges="gneE20 gneE21 gneE22"/>
    </vehicle>
    <vehicle id="433" type="ev" depart="433.00">
        <route edges="gneE17"/>
    </vehicle>
    <vehicle id="435" type="ev" depart="435.00">
        <route edges="gneE19 gneE20 gneE21"/>
    </vehicle>
    <vehicle id="436" type="ev" depart="436.00">
        <route edges="gneE16 gneE17 gneE18 gneE15"/>
    </vehicle>
    <vehicle id="437" type="ev" depart="437.00">
        <route edges="gneE21 gneE22 gneE19"/>
    </vehicle>
    <vehicle id="439" type="ev" depart="439.00">
        <route edges="gneE16 gneE17 gneE18"/>
    </vehicle>
    <vehicle id="440" type="ev" depart="440.00">
        <route edges="gneE17"/>
    </vehicle>
    <vehicle id="442" type="ev" depart="442.00">
        <route edges="gneE22 gneE19 gneE20"/>
    </vehicle>
    <vehicle id="443" type="ev" depart="443.00">
        <route edges="gneE16 gneE17 gneE18"/>
    </vehicle>
    <vehicle id="447" type="ev" depart="447.00">
        <route edges="gneE16 gneE17 gneE18"/>
    </vehicle>
    <vehicle id="448" type="ev" depart="448.00">
        <route edges="gneE18 gneE15 gneE16"/>
    </vehicle>
    <vehicle id="449" type="ev" depart="449.00">
        <route edges="gneE19"/>
    </vehicle>
    <vehicle id="451" type="ev" depart="451.00">
        <route edges="gneE22 gneE19 gneE20"/>
    </vehicle>
    <vehicle id="453" type="ev" depart="453.00">
        <route edges="gneE20"/>
    </vehicle>
    <vehicle id="458" type="ev" depart="458.00">
        <route edges="gneE20 gneE21 gneE22 gneE19"/>
    </vehicle>
    <vehicle id="459" type="ev" depart="459.00">
        <route edges="gneE20"/>
    </vehicle>
    <vehicle id="460" type="ev" depart="460.00">
        <route edges="gneE20 gneE21"/>
    </vehicle>
    <vehicle id="461" type="ev" depart="461.00">
        <route edges="gneE20 gneE21 gneE22"/>
    </vehicle>
    <vehicle id="466" type="ev" depart="466.00">
        <route edges="gneE16"/>
    </vehicle>
    <vehicle id="467" type="ev" depart="467.00">
        <route edges="gneE19 gneE20 gneE21 gneE22"/>
    </vehicle>
    <vehicle id="468" type="ev" depart="468.00">
        <route edges="gneE19 gneE20 gneE21 gneE22"/>
    </vehicle>
    <vehicle id="471" type="ev" depart="471.00">
        <route edges="gneE21 gneE22 gneE19 gneE20"/>
    </vehicle>
    <vehicle id="472" type="ev" depart="472.00">
        <route edges="gneE17 gneE18 gneE15"/>
    </vehicle>
    <vehicle id="474" type="ev" depart="474.00">
        <route edges="gneE22 gneE19 gneE20 gneE21"/>
    </vehicle>
    <vehicle id="475" type="ev" depart="475.00">
        <route edges="gneE20 gneE21 gneE22"/>
    </vehicle>
    <vehicle id="476" type="ev" depart="476.00">
        <route edges="gneE22 gneE19 gneE20 gneE21"/>
    </vehicle>
    <vehicle id="480" type="ev" depart="480.00">
        <route edges="gneE20 gneE21 gneE22 gneE19"/>
    </vehicle>
    <vehicle id="481" type="ev" depart="481.00">
        <route edges="gneE21 gneE22"/>
    </vehicle>
    <vehicle id="482" type="ev" depart="482.00">
        <route edges="gneE15 gneE16"/>
    </vehicle>
    <vehicle id="484" type="ev" depart="484.00">
        <route edges="gneE19 gneE20 gneE21 gneE22"/>
    </vehicle>
    <vehicle id="485" type="ev" depart="485.00">
        <route edges="gneE16 gneE17 gneE18 gneE15"/>
    </vehicle>
    <vehicle id="486" type="ev" depart="486.00">
        <route edges="gneE21 gneE22"/>
    </vehicle>
    <vehicle id="487" type="ev" depart="487.00">
        <route edges="gneE17 gneE18"/>
    </vehicle>
    <vehicle id="489" type="ev" depart="489.00">
        <route edges="gneE17 gneE18"/>
    </vehicle>
    <vehicle id="491" type="ev" depart="491.00">
        <route edges="gneE16 gneE17 gneE18"/>
    </vehicle>
    <vehicle id="492" type="ev" depart="492.00">
        <route edges="gneE20"/>
    </vehicle>
    <vehicle id="495" type="ev" depart="495.00">
        <route edges="gneE18 gneE15"/>
    </vehicle>
    <vehicle id="496" type="ev" depart="496.00">
        <route edges="gneE18"/>
    </vehicle>
    <vehicle id="498" type="ev" depart="498.00">
        <route edges="gneE17 gneE18"/>
    </vehicle>
    <vehicle id="499" type="ev" depart="499.00">
        <route edges="gneE22 gneE19 gneE20 gneE21"/>
    </vehicle>
    <vehicle id="501" type="ev" depart="501.00">
        <route edges="gneE19 gneE20 gneE21 gneE22"/>
    </vehicle>
    <vehicle id="502" type="ev" depart="502.00">
        <route edges="gneE17 gneE18"/>
    </vehicle>
    <vehicle id="503" type="ev" depart="503.00">
        <route edges="gneE16 gneE17 gneE18 gneE15"/>
    </vehicle>
    <vehicle id="505" type="ev" depart="505.00">
        <route edges="gneE20"/>
    </vehicle>
    <vehicle id="510" type="ev" depart="510.00">
        <route edges="gneE16"/>
    </vehicle>
    <vehicle id="514" type="ev" depart="514.00">
        <route edges="gneE16"/>
    </vehicle>
    <vehicle id="515" type="ev" depart="515.00">
        <route edges="gneE17 gneE18 gneE15 gneE16"/>
    </vehicle>
    <vehicle id="518" type="ev" depart="518.00">
        <route edges="gneE16 gneE17"/>
    </vehicle>
    <vehicle id="519" type="ev" depart="519.00">
        <route edges="gneE16 gneE17 gneE18 gneE15"/>
    </vehicle>
    <vehicle id="520" type="ev" depart="520.00">
        <route edges="gneE20 gneE21 gneE22 gneE19"/>
    </vehicle>
    <vehicle id="522" type="ev" depart="522.00">
        <route edges="gneE21 gneE22 gneE19"/>
    </vehicle>
    <vehicle id="525" type="ev" depart="525.00">
        <route edges="gneE21"/>
    </vehicle>
    <vehicle id="528" type="ev" depart="528.00">
        <route edges="gneE18"/>
    </vehicle>
    <vehicle id="532" type="ev" depart="532.00">
        <route edges="gneE15 gneE16 gneE17"/>
    </vehicle>
    <vehicle id="533" type="ev" depart="533.00">